

 <GENCASE4>  Copyright (C) 2016 by Dr Jose M. Dominguez
 All rights reserved.

 DualSPHysics is an international collaboration between University of Vigo 
 (Spain) and University of Manchester (UK). 

 Redistribution and use in source and binary forms, with or without
 modification, are permitted provided that the following conditions
 are met:
 * Redistributions of source code must retain the above copyright
   notice, this list of conditions and the following disclaimer.
 * Redistributions in binary form must reproduce the above copyright
   notice, this list of conditions and the following disclaimer in the
   documentation and/or other materials provided with the distribution.
 * Neither the name of the DualSPHysics nor the names of its contributors
   may be used to endorse or promote products derived from this software
   without specific prior written permission.

 THIS SOFTWARE IS PROVIDED BY THE COPYRIGHT HOLDERS AND CONTRIBUTORS "AS IS"
 AND ANY EXPRESS OR IMPLIED WARRANTIES, INCLUDING, BUT NOT LIMITED TO, THE
 IMPLIED WARRANTIES OF MERCHANTABILITY AND FITNESS FOR A PARTICULAR PURPOSE
 ARE DISCLAIMED. IN NO EVENT SHALL THE COPYRIGHT OWNER BE LIABLE FOR ANY
 DIRECT, INDIRECT, INCIDENTAL, SPECIAL, EXEMPLARY, OR CONSEQUENTIAL DAMAGES
 (INCLUDING, BUT NOT LIMITED TO, PROCUREMENT OF SUBSTITUTE GOODS OR SERVICES;
 LOSS OF USE, DATA, OR PROFITS; OR BUSINESS INTERRUPTION) HOWEVER CAUSED AND
 ON ANY THEORY OF LIABILITY, WHETHER IN CONTRACT, STRICT LIABILITY, OR TORT
 (INCLUDING NEGLIGENCE OR OTHERWISE) ARISING IN ANY WAY OUT OF THE USE OF
 THIS SOFTWARE, EVEN IF ADVISED OF THE POSSIBILITY OF SUCH DAMAGE. 


GenCase4 v4.0.025 (15-04-2016) 
================================
OmpThreads: 8

[LoadXML]
List: MAIN

Total operations: 14
[LoadXML-End  time:0.001s]

[Draw]
Mk size: 1 bytes
Case limits: (-0.05,-0.05,-0.05) - (2,1,1)
Distance between points: 0.0085
Case domain: (0,0,0)-(240,122,122)
Domain points: 241 x 123 x 123 = 3646089
Case parts: 1 x 123z
Memory: 0.00Gb 3.48Mb (3646089)

> MAIN
FileShapes> Box_Dp.vtk  shapes:5  points:8   (time:0.001s)
FileShapes> Building_Dp.vtk  shapes:6  points:12   (time:0.000s)
<MAIN (Operations= 9+5+2 = 16)

Triangles: 46 (0 ignored)
[Draw-End  time:0.007s]

[PreparePoints]
BitSizeTot: 23 (2 + 8+7+6)
Points loaded: 171496
Sorting points by Z...
Sorting points by Mk...

List of Points:
Points -> Fixed-Boundary particles:
  block[  0] (mk: 11):  39993  -->   39993
  block[  1] (mk: 12):   2383  -->    2383
  block[  2] (mk: 21):    810  -->     810
Points -> Fluid particles:
  block[  3] (mk:  1): 128310  -->  128310

Total particles: 171496 (bound=43186 (fx=43186 mv=0 ft=0) fluid=128310)

Maximum depth: 0.289 (automatic)
Speed of system: 1.68377 (automatic)
Speed of sound: max(coefsound*speedsystem,10*sqrt(g*depth))
Speed of sound: 33.6755 max(33.6755,16.8377)

Coefh:1.000000 (hdp:1.732051)

[PreparePoints-End  time:0.017s]

[SaveCase3D]
CaseDambreak.bi4<double>  (time: 0.012s)
CaseDambreak_out/CaseDambreak_All.vtk  (time: 0.020s)
CaseDambreak_out/CaseDambreak_Bound.vtk  (time: 0.005s)
CaseDambreak_out/CaseDambreak_Fluid.vtk  (time: 0.015s)
CaseDambreak_out/CaseDambreak.xml  (time: 0.004s)

Save files time: 0.056s
[SaveCase3D-End  time:0.062s]

