

 <DUALSPHYSICS4> Copyright (C) 2016 by
 Dr Jose M. Dominguez, Dr Alejandro Crespo,
 Prof. Moncho Gomez Gesteira, Dr Anxo Barreiro,
 Dr Benedict Rogers, Dr Georgios Fourtakas, Dr Athanasios Mokos,
 Dr Renato Vacondio, Dr Ricardo Canelas,
 Dr Stephen Longshaw, Dr Corrado Altomare.

 EPHYSLAB Environmental Physics Laboratory, Universidade de Vigo
 School of Mechanical, Aerospace and Civil Engineering, University of Manchester

 DualSPHysics is free software: you can redistribute it and/or
 modify it under the terms of the GNU General Public License as
 published by the Free Software Foundation, either version 3 of
 the License, or (at your option) any later version.

 DualSPHysics is distributed in the hope that it will be useful,
 but WITHOUT ANY WARRANTY; without even the implied warranty of
 MERCHANTABILITY or FITNESS FOR A PARTICULAR PURPOSE.  See the
 GNU General Public License for more details.

 You should have received a copy of the GNU General Public License,
 along with DualSPHysics. If not, see <http://www.gnu.org/licenses/>.


DualSPHysics4 v4.0.055 (15-04-2016)
====================================
Threads by host for parallel execution: 8
[Initialising JSphCpuSingle v0.70  31-05-2016 17:02:23]
**Basic case configuration is loaded
**Special case configuration is loaded
Loading initial state of particles...
Loaded particles: 171496
MapRealPos(border)=(0.000985278,0.000985278,0.000985278)-(1.59901,0.672515,0.451515)
MapRealPos(final)=(0.000985278,0.000985278,0.000985278)-(1.59901,0.672515,0.902044)
**Initial state of particles is loaded
**3D-Simulation parameters:
CaseName="CaseDambreak"
RunName="CaseDambreak"
PosDouble="1: Uses double and stores in single precision"
SvTimers=True
StepAlgorithm="Verlet"
VerletSteps=40
Kernel="Cubic"
Viscosity="Artificial"
Visco=0.010000
ViscoBoundFactor=1.000000
DeltaSph="None"
Shifting="None"
RigidAlgorithm="None"
FloatingCount=0
CaseNp=171496
CaseNbound=43186
CaseNfixed=43186
CaseNmoving=0
CaseNfloat=0
CaseNfluid=128310
PeriodicActive=0
Dx=0.0085
H=0.014722
CoefficientH=1
CteB=162005.140625
Gamma=7.000000
RhopZero=1000.000000
Cs0=33.6755
CFLnumber=0.200000
DtIni=0.000437186
DtMin=2.18593e-005
DtAllParticles=False
MassFluid=0.000614
MassBound=0.000614
CubicCte.a1=0.318310
CubicCte.aa=6775352.500000
CubicCte.a24=24937.416016
CubicCte.c1=-20326058.000000
CubicCte.c2=-5081514.500000
CubicCte.d1=15244543.000000
CubicCte.od_wdeltap=0.000018
TimeMax=1.5
TimePart=0.01
Gravity=(0.000000,0.000000,-9.810000)
NpMinimum=43186
RhopOut=True
RhopOutMin=700.000000
RhopOutMax=1300.000000
**Requested cpu memory for 171496 particles: 19.0 MB.
CellOrder="XYZ"
CellMode="2H"
Hdiv=1
MapCells=(55,23,31)
DomCells=(55,23,31)
DomCellCode="11_10_11"
**CellDiv: Requested cpu memory for 180070 particles: 5.5 MB.
**CellDiv: Requested cpu memory for 4992 cells (CellMode=2H): 0.1 MB.
RunMode="Pos-Double, OpenMP(Threads:8)"
Allocated memory in CPU: 25735692 (24.54 MB)
Part_0000        171496 particles successfully stored

[Initialising simulation (x666snsk)  31-05-2016 17:02:24]
PART       PartTime      TotalSteps    Steps    Time/Sec   Finish time        
=========  ============  ============  =======  =========  ===================
Part_0001      0.010080           116      116    4976.21  31-05-2016 19:06:48
Part_0002      0.020017           231      115    5192.12  31-05-2016 19:09:28
Part_0003      0.030082           348      117    5238.97  31-05-2016 19:10:46
Part_0004      0.040044           464      116    5296.18  31-05-2016 19:11:47
Part_0005      0.050017           583      119    5419.33  31-05-2016 19:12:59
Part_0006      0.060020           703      120    5522.64  31-05-2016 19:14:14
Part_0007      0.070002           827      124    5701.51  31-05-2016 19:15:45
Part_0008      0.080025           949      122    5665.23  31-05-2016 19:16:48
Part_0009      0.090037          1076      127    5859.78  31-05-2016 19:18:08
Part_0010      0.100035          1205      129    5916.39  31-05-2016 19:19:22
Part_0011      0.110054          1335      130    5963.06  31-05-2016 19:20:27
**CellDiv: Requested cpu memory for 6048 cells (CellMode=2H): 0.1 MB.
Part_0012      0.120020          1467      132    6106.18  31-05-2016 19:21:40
Part_0013      0.130037          1599      132    6127.67  31-05-2016 19:22:45
Part_0014      0.140048          1730      131    6080.92  31-05-2016 19:23:34
Part_0015      0.150055          1864      134    6263.04  31-05-2016 19:24:36
Part_0016      0.160007          2000      136    6391.02  31-05-2016 19:25:42
Part_0017      0.170022          2135      135    6251.15  31-05-2016 19:26:27
**CellDiv: Requested cpu memory for 7200 cells (CellMode=2H): 0.1 MB.
Part_0018      0.180065          2274      139    6443.09  31-05-2016 19:27:24
Part_0019      0.190034          2413      139    6491.73  31-05-2016 19:28:19
Part_0020      0.200054          2553      140    6590.23  31-05-2016 19:29:15
Part_0021      0.210002          2692      139    6605.43  31-05-2016 19:30:08
Part_0022      0.220049          2834      142    6659.17  31-05-2016 19:30:58
Part_0023      0.230019          2975      141    6784.93  31-05-2016 19:31:53
Part_0024      0.240028          3117      142    6587.62  31-05-2016 19:32:31
Part_0025      0.250045          3259      142    6511.41  31-05-2016 19:33:01
Part_0026      0.260050          3400      141    6427.27  31-05-2016 19:33:25
Part_0027      0.270039          3544      144    6513.79  31-05-2016 19:33:51
**CellDiv: Requested cpu memory for 8712 cells (CellMode=2H): 0.1 MB.
Part_0028      0.280016          3685      141    6465.72  31-05-2016 19:34:13
Part_0029      0.290022          3843      158    7238.76  31-05-2016 19:35:14
Part_0030      0.300006          4075      232   10810.89  31-05-2016 19:39:08
Part_0031      0.310010          4296      221   10424.25  31-05-2016 19:42:29
Part_0032      0.320012          4508      212    9864.73  31-05-2016 19:45:11
