

 <DUALSPHYSICS4> Copyright (C) 2016 by
 Dr Jose M. Dominguez, Dr Alejandro Crespo,
 Prof. Moncho Gomez Gesteira, Dr Anxo Barreiro,
 Dr Benedict Rogers, Dr Georgios Fourtakas, Dr Athanasios Mokos,
 Dr Renato Vacondio, Dr Ricardo Canelas,
 Dr Stephen Longshaw, Dr Corrado Altomare.

 EPHYSLAB Environmental Physics Laboratory, Universidade de Vigo
 School of Mechanical, Aerospace and Civil Engineering, University of Manchester

 DualSPHysics is free software: you can redistribute it and/or
 modify it under the terms of the GNU General Public License as
 published by the Free Software Foundation, either version 3 of
 the License, or (at your option) any later version.

 DualSPHysics is distributed in the hope that it will be useful,
 but WITHOUT ANY WARRANTY; without even the implied warranty of
 MERCHANTABILITY or FITNESS FOR A PARTICULAR PURPOSE.  See the
 GNU General Public License for more details.

 You should have received a copy of the GNU General Public License,
 along with DualSPHysics. If not, see <http://www.gnu.org/licenses/>.


DualSPHysics4 v4.0.055 (15-04-2016)
====================================
Threads by host for parallel execution: 8
[Initialising JSphCpuSingle v0.70  06-06-2016 15:58:02]
**Basic case configuration is loaded
**Special case configuration is loaded
Loading initial state of particles...
Loaded particles: 171496
MapRealPos(border)=(0.000985278,0.000985278,0.000985278)-(1.59901,0.672515,0.451515)
MapRealPos(final)=(0.000985278,0.000985278,0.000985278)-(1.59901,0.672515,0.902044)
**Initial state of particles is loaded
**3D-Simulation parameters:
CaseName="CaseDambreak"
RunName="CaseDambreak"
PosDouble="1: Uses double and stores in single precision"
SvTimers=True
StepAlgorithm="Verlet"
VerletSteps=40
Kernel="Cubic"
Viscosity="Artificial"
Visco=0.010000
ViscoBoundFactor=1.000000
DeltaSph="None"
Shifting="None"
RigidAlgorithm="None"
FloatingCount=0
CaseNp=171496
CaseNbound=43186
CaseNfixed=43186
CaseNmoving=0
CaseNfloat=0
CaseNfluid=128310
PeriodicActive=0
Dx=0.0085
H=0.014722
CoefficientH=1
CteB=162005.140625
Gamma=7.000000
RhopZero=1000.000000
Cs0=33.6755
CFLnumber=0.200000
DtIni=0.000437186
DtMin=2.18593e-005
DtAllParticles=False
MassFluid=0.000614
MassBound=0.000614
CubicCte.a1=0.318310
CubicCte.aa=6775352.500000
CubicCte.a24=24937.416016
CubicCte.c1=-20326058.000000
CubicCte.c2=-5081514.500000
CubicCte.d1=15244543.000000
CubicCte.od_wdeltap=0.000018
TimeMax=1.5
TimePart=0.01
Gravity=(0.000000,0.000000,-9.810000)
NpMinimum=43186
RhopOut=True
RhopOutMin=700.000000
RhopOutMax=1300.000000
**Requested cpu memory for 171496 particles: 19.0 MB.
CellOrder="XYZ"
CellMode="2H"
Hdiv=1
MapCells=(55,23,31)
DomCells=(55,23,31)
DomCellCode="11_10_11"
**CellDiv: Requested cpu memory for 180070 particles: 5.5 MB.
**CellDiv: Requested cpu memory for 4992 cells (CellMode=2H): 0.1 MB.
RunMode="Pos-Double, OpenMP(Threads:8)"
Allocated memory in CPU: 25735692 (24.54 MB)
Part_0000        171496 particles successfully stored

[Initialising simulation (7v1z8202)  06-06-2016 15:58:02]
PART       PartTime      TotalSteps    Steps    Time/Sec   Finish time        
=========  ============  ============  =======  =========  ===================
Part_0001      0.010085           116      116    3981.93  06-06-2016 17:37:34
Part_0002      0.020020           231      115    4312.25  06-06-2016 17:41:40
Part_0003      0.030081           348      117    4667.79  06-06-2016 17:46:02
Part_0004      0.040060           464      116    4417.68  06-06-2016 17:46:39
Part_0005      0.050083           581      117    4459.12  06-06-2016 17:47:13
Part_0006      0.060031           698      117    4626.42  06-06-2016 17:48:18
Part_0007      0.070072           817      119    4589.34  06-06-2016 17:48:56
Part_0008      0.080076           936      119    4546.75  06-06-2016 17:49:17
Part_0009      0.090004          1054      118    4809.71  06-06-2016 17:50:16
Part_0010      0.100028          1174      120    5169.04  06-06-2016 17:51:58
Part_0011      0.110032          1294      120    5236.53  06-06-2016 17:53:31
**CellDiv: Requested cpu memory for 6048 cells (CellMode=2H): 0.1 MB.
Part_0012      0.120017          1414      120    5140.19  06-06-2016 17:54:36
Part_0013      0.130011          1534      120    4915.15  06-06-2016 17:55:05
Part_0014      0.140031          1655      121    5294.58  06-06-2016 17:56:11
Part_0015      0.150049          1776      121    5342.81  06-06-2016 17:57:13
Part_0016      0.160078          1897      121    5585.45  06-06-2016 17:58:30
Part_0017      0.170008          2019      122    5441.02  06-06-2016 17:59:24
**CellDiv: Requested cpu memory for 7200 cells (CellMode=2H): 0.1 MB.
Part_0018      0.180056          2144      125    5113.37  06-06-2016 17:59:46
Part_0019      0.190077          2266      122    4591.50  06-06-2016 17:59:24
Part_0020      0.200058          2394      128    4962.40  06-06-2016 17:59:32
Part_0021      0.210063          2525      131    5059.47  06-06-2016 17:59:46
Part_0022      0.220060          2658      133    5680.96  06-06-2016 18:00:41
Part_0023      0.230028          2794      136    6454.65  06-06-2016 18:02:22
Part_0024      0.240055          2930      136    6211.47  06-06-2016 18:03:40
Part_0025      0.250041          3071      141    6321.88  06-06-2016 18:04:58
Part_0026      0.260064          3215      144    6426.63  06-06-2016 18:06:15
Part_0027      0.270053          3367      152    6670.42  06-06-2016 18:07:41
**CellDiv: Requested cpu memory for 8712 cells (CellMode=2H): 0.1 MB.
Part_0028      0.280022          3517      150    6933.55  06-06-2016 18:09:14
Part_0029      0.290027          3667      150    6663.84  06-06-2016 18:10:28
Part_0030      0.300035          3845      178    8026.58  06-06-2016 18:12:44
Part_0031      0.310011          4035      190    8469.02  06-06-2016 18:15:12
Part_0032      0.320028          4223      188    7766.17  06-06-2016 18:16:59
Part_0033      0.330041          4418      195    7624.10  06-06-2016 18:18:34
Part_0034      0.340003          4620      202    7992.17  06-06-2016 18:20:18
Part_0035      0.350048          4816      196    7591.54  06-06-2016 18:21:39
Part_0036      0.360045          5007      191    7379.89  06-06-2016 18:22:48
