

 <DUALSPHYSICS4> Copyright (C) 2016 by
 Dr Jose M. Dominguez, Dr Alejandro Crespo,
 Prof. Moncho Gomez Gesteira, Dr Anxo Barreiro,
 Dr Benedict Rogers, Dr Georgios Fourtakas, Dr Athanasios Mokos,
 Dr Renato Vacondio, Dr Ricardo Canelas,
 Dr Stephen Longshaw, Dr Corrado Altomare.

 EPHYSLAB Environmental Physics Laboratory, Universidade de Vigo
 School of Mechanical, Aerospace and Civil Engineering, University of Manchester

 DualSPHysics is free software: you can redistribute it and/or
 modify it under the terms of the GNU General Public License as
 published by the Free Software Foundation, either version 3 of
 the License, or (at your option) any later version.

 DualSPHysics is distributed in the hope that it will be useful,
 but WITHOUT ANY WARRANTY; without even the implied warranty of
 MERCHANTABILITY or FITNESS FOR A PARTICULAR PURPOSE.  See the
 GNU General Public License for more details.

 You should have received a copy of the GNU General Public License,
 along with DualSPHysics. If not, see <http://www.gnu.org/licenses/>.


DualSPHysics4 v4.0.055 (15-04-2016)
====================================
Threads by host for parallel execution: 8
[Initialising JSphCpuSingle v0.70  09-06-2016 16:47:43]
**Basic case configuration is loaded
**Special case configuration is loaded
Loading initial state of particles...
Loaded particles: 171496
MapRealPos(border)=(0.000985278,0.000985278,0.000985278)-(1.59901,0.672515,0.451515)
MapRealPos(final)=(0.000985278,0.000985278,0.000985278)-(1.59901,0.672515,0.902044)
**Initial state of particles is loaded
**3D-Simulation parameters:
CaseName="CaseDambreak"
RunName="CaseDambreak"
PosDouble="1: Uses double and stores in single precision"
SvTimers=True
StepAlgorithm="Verlet"
VerletSteps=40
Kernel="Cubic"
Viscosity="Artificial"
Visco=0.010000
ViscoBoundFactor=1.000000
DeltaSph="None"
Shifting="None"
RigidAlgorithm="None"
FloatingCount=0
CaseNp=171496
CaseNbound=43186
CaseNfixed=43186
CaseNmoving=0
CaseNfloat=0
CaseNfluid=128310
PeriodicActive=0
Dx=0.0085
H=0.014722
CoefficientH=1
CteB=162005.140625
Gamma=7.000000
RhopZero=1000.000000
Cs0=33.6755
CFLnumber=0.200000
DtIni=0.000437186
DtMin=2.18593e-005
DtAllParticles=False
MassFluid=0.000614
MassBound=0.000614
CubicCte.a1=0.318310
CubicCte.aa=6775352.500000
CubicCte.a24=24937.416016
CubicCte.c1=-20326058.000000
CubicCte.c2=-5081514.500000
CubicCte.d1=15244543.000000
CubicCte.od_wdeltap=0.000018
TimeMax=1.5
TimePart=0.01
Gravity=(0.000000,0.000000,-9.810000)
NpMinimum=43186
RhopOut=True
RhopOutMin=700.000000
RhopOutMax=1300.000000
**Requested cpu memory for 171496 particles: 19.0 MB.
CellOrder="XYZ"
CellMode="2H"
Hdiv=1
MapCells=(55,23,31)
DomCells=(55,23,31)
DomCellCode="11_10_11"
**CellDiv: Requested cpu memory for 180070 particles: 5.5 MB.
**CellDiv: Requested cpu memory for 4992 cells (CellMode=2H): 0.1 MB.
RunMode="Pos-Double, OpenMP(Threads:8)"
Allocated memory in CPU: 25735692 (24.54 MB)
Part_0000        171496 particles successfully stored

[Initialising simulation (ro2d9xw5)  09-06-2016 16:47:43]
PART       PartTime      TotalSteps    Steps    Time/Sec   Finish time        
=========  ============  ============  =======  =========  ===================
Part_0001      0.010085           116      116    3164.05  09-06-2016 18:06:49
Part_0002      0.020020           231      115    3175.48  09-06-2016 18:06:57
Part_0003      0.030081           348      117    3157.75  09-06-2016 18:06:51
Part_0004      0.040060           464      116    3165.85  09-06-2016 18:06:50
Part_0005      0.050083           581      117    3200.87  09-06-2016 18:07:02
Part_0006      0.060031           698      117    3233.45  09-06-2016 18:07:17
Part_0007      0.070072           817      119    3309.02  09-06-2016 18:07:44
