#TargetFrameworkVersion=v4.0:PlatformToolSet=v120:EnableManagedIncrementalBuild=false:VCToolArchitecture=Native32Bit
Debug|x64|E:\Caio\SphGpuAlheio\DualSPHysics 4.0\RVA\DualSPHysics_v4.0_Windows_x64\SOURCE\DualSPHysics_v4\|
