#TargetFrameworkVersion=v4.0:PlatformToolSet=v120:EnableManagedIncrementalBuild=false:VCToolArchitecture=Native32Bit
Release|x64|C:\Users\voxar\Desktop\vems\DualSPHysics_v4.0_Windows_x64\SOURCE\DualSPHysics_v4\|
